rm -rf src/__pycache__
rm -f src/parsetab.py src/parser.out src/parsetab.py src/*.dot src/*.ps ast* src/ast src/*.svg src/*.png
clear
[H[2J[3Jpython ./src/parse.py -i ./tests/test_1.java -o src/ast.dot -v -a
Input file: ./tests/test_1.java
Output file: src/ast.dot
Generating Complete Parse Tree
Dot file generated: src/ast.dot
Generating Symbol Table
('Start',
 ('CompilationUnit',
  ('BetaPackageDeclaration',
   ('PackageDeclaration',
    'package',
    ('Name',
     ('NameDotIdentifierId', ('Name', ('IdentifierId', 'abc')), '.', 'def')),
    ';')),
  ('BetaAlphaImportDeclaration',
   ('AlphaImportDeclaration',
    ('AlphaImportDeclaration',
     ('AlphaImportDeclaration',
      ('AlphaImportDeclaration',
       ('ImportDeclaration',
        ('SingleTypeImportDeclaration',
         'import',
         ('Name', ('IdentifierId', 'java')),
         ';'))),
      ('ImportDeclaration',
       ('SingleTypeImportDeclaration',
        'import',
        ('Name',
         ('NameDotIdentifierId',
          ('Name',
           ('NameDotIdentifierId',
            ('Name', ('IdentifierId', 'java')),
            '.',
            'io')),
          '.',
          'h')),
        ';'))),
     ('ImportDeclaration',
      ('SingleTypeImportDeclaration',
       'import',
       ('Name',
        ('NameDotIdentifierId',
         ('Name', ('IdentifierId', 'System')),
         '.',
         'out')),
       ';'))),
    ('ImportDeclaration',
     ('TypeImportOnDemandDeclaration',
      'import',
      ('Name',
       ('NameDotIdentifierId',
        ('Name', ('IdentifierId', 'System')),
        '.',
        'out')),
      '.',
      '*',
      ';')))),
  ('BetaAlphaTypeDeclaration',
   ('AlphaTypeDeclaration',
    ('TypeDeclaration',
     ('ClassDeclaration',
      ('BetaAlphaModifier', ('AlphaModifier', ('Modifier', 'public'))),
      'class',
      'Person',
      ('BetaSuper', ('',)),
      ('BetaAlphaInterface', ('',)),
      ('ClassBody',
       '{',
       ('BetaAlphaClassBodyDeclaration',
        ('AlphaClassBodyDeclaration',
         ('AlphaClassBodyDeclaration',
          ('AlphaClassBodyDeclaration',
           ('AlphaClassBodyDeclaration',
            ('AlphaClassBodyDeclaration',
             ('AlphaClassBodyDeclaration',
              ('AlphaClassBodyDeclaration',
               ('AlphaClassBodyDeclaration',
                ('AlphaClassBodyDeclaration',
                 ('AlphaClassBodyDeclaration',
                  ('ClassBodyDeclaration',
                   ('ClassMemberDeclaration',
                    ('FieldDeclaration',
                     ('BetaAlphaModifier',
                      ('AlphaModifier', ('Modifier', 'private'))),
                     ('Type',
                      ('ReferenceType',
                       ('ClassOrInterfaceType',
                        ('Name', ('IdentifierId', 'String'))))),
                     ('AlphaVariableDeclarator',
                      ('VariableDeclarator', ('VariableDeclaratorId', 'name'))),
                     ';')))),
                 ('ClassBodyDeclaration',
                  ('ClassMemberDeclaration',
                   ('FieldDeclaration',
                    ('BetaAlphaModifier',
                     ('AlphaModifier', ('Modifier', 'private'))),
                    ('Type',
                     ('PrimitiveType',
                      ('NumericType', ('IntegralType', 'int')))),
                    ('AlphaVariableDeclarator',
                     ('VariableDeclarator', ('VariableDeclaratorId', 'age'))),
                    ';')))),
                ('ClassBodyDeclaration',
                 ('ClassMemberDeclaration',
                  ('FieldDeclaration',
                   ('BetaAlphaModifier',
                    ('AlphaModifier', ('Modifier', 'private'))),
                   ('Type',
                    ('ReferenceType',
                     ('ClassOrInterfaceType',
                      ('Name', ('IdentifierId', 'String'))))),
                   ('AlphaVariableDeclarator',
                    ('VariableDeclarator',
                     ('VariableDeclaratorId', 'address'))),
                   ';')))),
               ('ClassBodyDeclaration',
                ('ConstructorDeclaration',
                 ('BetaAlphaModifier',
                  ('AlphaModifier', ('Modifier', 'public'))),
                 ('ConstructorDeclarator',
                  ('IdentifierId', 'Person'),
                  '(',
                  ('BetaFormalParameterList',
                   ('FormalParameterList',
                    ('FormalParameterList',
                     ('FormalParameterList',
                      ('FormalParameter',
                       ('Type',
                        ('ReferenceType',
                         ('ClassOrInterfaceType',
                          ('Name', ('IdentifierId', 'String'))))),
                       ('VariableDeclaratorId', 'name'))),
                     ',',
                     ('FormalParameter',
                      ('Type',
                       ('PrimitiveType',
                        ('NumericType', ('IntegralType', 'int')))),
                      ('VariableDeclaratorId', 'age'))),
                    ',',
                    ('FormalParameter',
                     ('Type',
                      ('ReferenceType',
                       ('ClassOrInterfaceType',
                        ('Name', ('IdentifierId', 'String'))))),
                     ('VariableDeclaratorId', 'address')))),
                  ')'),
                 ('BetaAlphaThrow', ('',)),
                 ('ConstructorBody',
                  '{',
                  ('BetaExplicitConstructorInvocation', ('',)),
                  ('BetaAlphaBlockStatement',
                   ('AlphaBlockStatement',
                    ('AlphaBlockStatement',
                     ('AlphaBlockStatement',
                      ('BlockStatement',
                       ('Statement',
                        ('StatementWithoutTrailingSubstatement',
                         ('ExpressionStatement',
                          ('StatementExpression',
                           ('Assignment',
                            ('LeftHandSide',
                             ('Name', ('IdentifierId', 'name'))),
                            ('AssignmentOperator', '='),
                            ('AssignmentExpression',
                             ('ConditionalExpression',
                              ('ConditionalOrExpression',
                               ('ConditionalAndExpression',
                                ('InclusiveOrExpression',
                                 ('ExclusiveOrExpression',
                                  ('AndExpression',
                                   ('EqualityExpression',
                                    ('RelationalExpression',
                                     ('ShiftExpression',
                                      ('AdditiveExpression',
                                       ('MultiplicativeExpression',
                                        ('UnaryExpression',
                                         ('UnaryExpressionNotPlusMinus',
                                          ('PostfixExpression',
                                           ('Name',
                                            ('IdentifierId',
                                             'name'))))))))))))))))))),
                          ';'))))),
                     ('BlockStatement',
                      ('Statement',
                       ('StatementWithoutTrailingSubstatement',
                        ('ExpressionStatement',
                         ('StatementExpression',
                          ('Assignment',
                           ('LeftHandSide', ('Name', ('IdentifierId', 'age'))),
                           ('AssignmentOperator', '='),
                           ('AssignmentExpression',
                            ('ConditionalExpression',
                             ('ConditionalOrExpression',
                              ('ConditionalAndExpression',
                               ('InclusiveOrExpression',
                                ('ExclusiveOrExpression',
                                 ('AndExpression',
                                  ('EqualityExpression',
                                   ('RelationalExpression',
                                    ('ShiftExpression',
                                     ('AdditiveExpression',
                                      ('MultiplicativeExpression',
                                       ('UnaryExpression',
                                        ('UnaryExpressionNotPlusMinus',
                                         ('CastExpression',
                                          '(',
                                          ('PrimitiveType',
                                           ('NumericType',
                                            ('IntegralType', 'int'))),
                                          ('BetaAlphaDim', ('',)),
                                          ')',
                                          ('UnaryExpression',
                                           ('UnaryExpressionNotPlusMinus',
                                            ('PostfixExpression',
                                             ('Primary',
                                              ('PrimaryNoNewArray',
                                               ('Literal',
                                                '55.55'))))))))))))))))))))))),
                         ';'))))),
                    ('BlockStatement',
                     ('Statement',
                      ('StatementWithoutTrailingSubstatement',
                       ('ExpressionStatement',
                        ('StatementExpression',
                         ('Assignment',
                          ('LeftHandSide',
                           ('Name', ('IdentifierId', 'address'))),
                          ('AssignmentOperator', '='),
                          ('AssignmentExpression',
                           ('ConditionalExpression',
                            ('ConditionalOrExpression',
                             ('ConditionalAndExpression',
                              ('InclusiveOrExpression',
                               ('ExclusiveOrExpression',
                                ('AndExpression',
                                 ('EqualityExpression',
                                  ('RelationalExpression',
                                   ('ShiftExpression',
                                    ('AdditiveExpression',
                                     ('MultiplicativeExpression',
                                      ('UnaryExpression',
                                       ('UnaryExpressionNotPlusMinus',
                                        ('PostfixExpression',
                                         ('Name',
                                          ('IdentifierId',
                                           'address'))))))))))))))))))),
                        ';')))))),
                  '}')))),
              ('ClassBodyDeclaration',
               ('ClassMemberDeclaration',
                ('MethodDeclaration',
                 ('MethodHeader',
                  ('BetaAlphaModifier',
                   ('AlphaModifier', ('Modifier', 'public'))),
                  'void',
                  ('MethodDeclarator',
                   'setName',
                   '(',
                   ('BetaFormalParameterList',
                    ('FormalParameterList',
                     ('FormalParameter',
                      ('Type',
                       ('ReferenceType',
                        ('ClassOrInterfaceType',
                         ('Name', ('IdentifierId', 'String'))))),
                      ('VariableDeclaratorId', 'name')))),
                   ')'),
                  ('BetaAlphaThrow', ('',))),
                 ('MethodBody',
                  ('Block',
                   '{',
                   ('BetaAlphaBlockStatement',
                    ('AlphaBlockStatement',
                     ('BlockStatement',
                      ('Statement',
                       ('StatementWithoutTrailingSubstatement',
                        ('ExpressionStatement',
                         ('StatementExpression',
                          ('Assignment',
                           ('LeftHandSide', ('Name', ('IdentifierId', 'name'))),
                           ('AssignmentOperator', '='),
                           ('AssignmentExpression',
                            ('ConditionalExpression',
                             ('ConditionalOrExpression',
                              ('ConditionalAndExpression',
                               ('InclusiveOrExpression',
                                ('ExclusiveOrExpression',
                                 ('AndExpression',
                                  ('EqualityExpression',
                                   ('RelationalExpression',
                                    ('ShiftExpression',
                                     ('AdditiveExpression',
                                      ('MultiplicativeExpression',
                                       ('UnaryExpression',
                                        ('UnaryExpressionNotPlusMinus',
                                         ('PostfixExpression',
                                          ('Name',
                                           ('IdentifierId',
                                            'name'))))))))))))))))))),
                         ';')))))),
                   '}')))))),
             ('ClassBodyDeclaration',
              ('ClassMemberDeclaration',
               ('MethodDeclaration',
                ('MethodHeader',
                 ('BetaAlphaModifier',
                  ('AlphaModifier', ('Modifier', 'public'))),
                 'void',
                 ('MethodDeclarator',
                  'setAge',
                  '(',
                  ('BetaFormalParameterList',
                   ('FormalParameterList',
                    ('FormalParameter',
                     ('Type',
                      ('PrimitiveType',
                       ('NumericType', ('IntegralType', 'int')))),
                     ('VariableDeclaratorId', 'age')))),
                  ')'),
                 ('BetaAlphaThrow', ('',))),
                ('MethodBody',
                 ('Block',
                  '{',
                  ('BetaAlphaBlockStatement',
                   ('AlphaBlockStatement',
                    ('BlockStatement',
                     ('Statement',
                      ('StatementWithoutTrailingSubstatement',
                       ('ExpressionStatement',
                        ('StatementExpression',
                         ('Assignment',
                          ('LeftHandSide', ('Name', ('IdentifierId', 'age'))),
                          ('AssignmentOperator', '='),
                          ('AssignmentExpression',
                           ('ConditionalExpression',
                            ('ConditionalOrExpression',
                             ('ConditionalAndExpression',
                              ('InclusiveOrExpression',
                               ('ExclusiveOrExpression',
                                ('AndExpression',
                                 ('EqualityExpression',
                                  ('RelationalExpression',
                                   ('ShiftExpression',
                                    ('AdditiveExpression',
                                     ('MultiplicativeExpression',
                                      ('UnaryExpression',
                                       ('UnaryExpressionNotPlusMinus',
                                        ('PostfixExpression',
                                         ('Name',
                                          ('IdentifierId',
                                           'age'))))))))))))))))))),
                        ';')))))),
                  '}')))))),
            ('ClassBodyDeclaration',
             ('ClassMemberDeclaration',
              ('MethodDeclaration',
               ('MethodHeader',
                ('BetaAlphaModifier',
                 ('AlphaModifier', ('Modifier', 'public'))),
                'void',
                ('MethodDeclarator',
                 'setAddress',
                 '(',
                 ('BetaFormalParameterList',
                  ('FormalParameterList',
                   ('FormalParameter',
                    ('Type',
                     ('ReferenceType',
                      ('ClassOrInterfaceType',
                       ('Name', ('IdentifierId', 'String'))))),
                    ('VariableDeclaratorId', 'address')))),
                 ')'),
                ('BetaAlphaThrow', ('',))),
               ('MethodBody',
                ('Block',
                 '{',
                 ('BetaAlphaBlockStatement',
                  ('AlphaBlockStatement',
                   ('BlockStatement',
                    ('Statement',
                     ('StatementWithoutTrailingSubstatement',
                      ('ExpressionStatement',
                       ('StatementExpression',
                        ('Assignment',
                         ('LeftHandSide',
                          ('Name', ('IdentifierId', 'address'))),
                         ('AssignmentOperator', '='),
                         ('AssignmentExpression',
                          ('ConditionalExpression',
                           ('ConditionalOrExpression',
                            ('ConditionalAndExpression',
                             ('InclusiveOrExpression',
                              ('ExclusiveOrExpression',
                               ('AndExpression',
                                ('EqualityExpression',
                                 ('RelationalExpression',
                                  ('ShiftExpression',
                                   ('AdditiveExpression',
                                    ('MultiplicativeExpression',
                                     ('UnaryExpression',
                                      ('UnaryExpressionNotPlusMinus',
                                       ('PostfixExpression',
                                        ('Name',
                                         ('IdentifierId',
                                          'address'))))))))))))))))))),
                       ';')))))),
                 '}')))))),
           ('ClassBodyDeclaration',
            ('ClassMemberDeclaration',
             ('MethodDeclaration',
              ('MethodHeader',
               ('BetaAlphaModifier', ('AlphaModifier', ('Modifier', 'public'))),
               ('Type',
                ('ReferenceType',
                 ('ClassOrInterfaceType',
                  ('Name', ('IdentifierId', 'String'))))),
               ('MethodDeclarator',
                'getName',
                '(',
                ('BetaFormalParameterList', ('',)),
                ')'),
               ('BetaAlphaThrow', ('',))),
              ('MethodBody',
               ('Block',
                '{',
                ('BetaAlphaBlockStatement',
                 ('AlphaBlockStatement',
                  ('BlockStatement',
                   ('Statement',
                    ('StatementWithoutTrailingSubstatement',
                     ('ReturnStatement',
                      'return',
                      ('BetaExpression',
                       ('Expression',
                        ('AssignmentExpression',
                         ('ConditionalExpression',
                          ('ConditionalOrExpression',
                           ('ConditionalAndExpression',
                            ('InclusiveOrExpression',
                             ('ExclusiveOrExpression',
                              ('AndExpression',
                               ('EqualityExpression',
                                ('RelationalExpression',
                                 ('ShiftExpression',
                                  ('AdditiveExpression',
                                   ('MultiplicativeExpression',
                                    ('UnaryExpression',
                                     ('UnaryExpressionNotPlusMinus',
                                      ('PostfixExpression',
                                       ('Name',
                                        ('IdentifierId',
                                         'name'))))))))))))))))))),
                      ';')))))),
                '}')))))),
          ('ClassBodyDeclaration',
           ('ClassMemberDeclaration',
            ('MethodDeclaration',
             ('MethodHeader',
              ('BetaAlphaModifier', ('AlphaModifier', ('Modifier', 'public'))),
              ('Type',
               ('PrimitiveType', ('NumericType', ('IntegralType', 'int')))),
              ('MethodDeclarator',
               'getAge',
               '(',
               ('BetaFormalParameterList', ('',)),
               ')'),
              ('BetaAlphaThrow', ('',))),
             ('MethodBody',
              ('Block',
               '{',
               ('BetaAlphaBlockStatement',
                ('AlphaBlockStatement',
                 ('BlockStatement',
                  ('Statement',
                   ('StatementWithoutTrailingSubstatement',
                    ('ReturnStatement',
                     'return',
                     ('BetaExpression',
                      ('Expression',
                       ('AssignmentExpression',
                        ('ConditionalExpression',
                         ('ConditionalOrExpression',
                          ('ConditionalAndExpression',
                           ('InclusiveOrExpression',
                            ('ExclusiveOrExpression',
                             ('AndExpression',
                              ('EqualityExpression',
                               ('RelationalExpression',
                                ('ShiftExpression',
                                 ('AdditiveExpression',
                                  ('MultiplicativeExpression',
                                   ('UnaryExpression',
                                    ('UnaryExpressionNotPlusMinus',
                                     ('PostfixExpression',
                                      ('Name',
                                       ('IdentifierId',
                                        'age'))))))))))))))))))),
                     ';')))))),
               '}')))))),
         ('ClassBodyDeclaration',
          ('ClassMemberDeclaration',
           ('MethodDeclaration',
            ('MethodHeader',
             ('BetaAlphaModifier', ('AlphaModifier', ('Modifier', 'public'))),
             ('Type',
              ('ReferenceType',
               ('ClassOrInterfaceType', ('Name', ('IdentifierId', 'String'))))),
             ('MethodDeclarator',
              'getAddress',
              '(',
              ('BetaFormalParameterList', ('',)),
              ')'),
             ('BetaAlphaThrow', ('',))),
            ('MethodBody',
             ('Block',
              '{',
              ('BetaAlphaBlockStatement',
               ('AlphaBlockStatement',
                ('BlockStatement',
                 ('Statement',
                  ('StatementWithoutTrailingSubstatement',
                   ('ReturnStatement',
                    'return',
                    ('BetaExpression',
                     ('Expression',
                      ('AssignmentExpression',
                       ('ConditionalExpression',
                        ('ConditionalOrExpression',
                         ('ConditionalAndExpression',
                          ('InclusiveOrExpression',
                           ('ExclusiveOrExpression',
                            ('AndExpression',
                             ('EqualityExpression',
                              ('RelationalExpression',
                               ('ShiftExpression',
                                ('AdditiveExpression',
                                 ('MultiplicativeExpression',
                                  ('UnaryExpression',
                                   ('UnaryExpressionNotPlusMinus',
                                    ('PostfixExpression',
                                     ('Name',
                                      ('IdentifierId',
                                       'address'))))))))))))))))))),
                    ';')))))),
              '}'))))))),
       '}')))))))
Single java
Single java.io.h
Single System.out
Demand System.out .*
Symbol Table generated
